


 34 38  0  0  0  0  0  0  0  0999 V2000
    6.0638   -7.7764   47.0615 C   0  0  0  0  0  0  0  0  0  0  0  0
    5.4479   -8.1154   48.1615 N   0  0  0  0  0  0  0  0  0  0  0  0
    4.0973   -8.2908   47.9523 N   0  0  0  0  0  0  0  0  0  0  0  0
    3.7384   -8.1360   46.6902 C   0  0  0  0  0  0  0  0  0  0  0  0
    5.0546   -7.5267   45.7249 S   0  0  0  0  0  0  0  0  0  0  0  0
    2.5069   -8.4503   46.1880 N   0  0  0  0  0  0  0  0  0  0  0  0
    1.8484   -7.6357   45.1783 C   0  0  0  0  0  0  0  0  0  0  0  0
    1.1780   -8.5482   44.1510 C   0  0  0  0  0  0  0  0  0  0  0  0
    0.1953   -9.5276   44.8111 C   0  0  0  0  0  0  0  0  0  0  0  0
    0.9587  -10.3327   45.8802 C   0  0  0  0  0  0  0  0  0  0  0  0
    1.6861   -9.4421   46.8917 C   0  0  0  0  0  0  0  0  0  0  0  0
   -1.0253   -8.7575   45.3492 C   0  0  0  0  0  0  0  0  0  0  0  0
   -2.0516   -8.4807   44.3144 C   0  0  0  0  0  0  0  0  0  0  0  0
   -1.9116   -8.6681   43.0126 N   0  0  0  0  0  0  0  0  0  0  0  0
   -3.1039   -8.3514   42.3948 N   0  0  0  0  0  0  0  0  0  0  0  0
   -3.9287   -7.9850   43.3433 C   0  0  0  0  0  0  0  0  0  0  0  0
   -5.2951   -7.5743   43.2632 C   0  0  0  0  0  0  0  0  0  0  0  0
   -5.9675   -7.2377   44.3342 N   0  0  0  0  0  0  0  0  0  0  0  0
   -5.3083   -7.2956   45.5549 C   0  0  0  0  0  0  0  0  0  0  0  0
   -4.0252   -7.6765   45.7017 C   0  0  0  0  0  0  0  0  0  0  0  0
   -3.3238   -8.0341   44.5668 N   0  0  0  0  0  0  0  0  0  0  0  0
    8.1269   -6.5074   46.9391 C   0  0  0  0  0  0  0  0  0  0  0  0
    9.3376   -6.5576   46.6976 O   0  0  0  0  0  0  0  0  0  0  0  0
    7.3955   -7.6511   46.7965 N   0  0  0  0  0  0  0  0  0  0  0  0
    7.9193   -8.4869   46.5830 H   0  0  0  0  0  0  0  0  0  0  0  0
    7.4795   -5.2354   47.4755 C   0  0  0  0  0  0  0  0  0  0  0  0
    7.7851   -4.1663   46.6100 O   0  0  0  0  0  0  0  0  0  0  0  0
    7.4844   -1.0568   47.1852 C   0  0  0  0  0  0  0  0  0  0  0  0
    6.6155   -1.9540   46.3497 C   0  0  0  0  0  0  0  0  0  0  0  0
    5.4891   -1.3423   45.7571 C   0  0  0  0  0  0  0  0  0  0  0  0
    4.5737   -2.0663   44.9939 C   0  0  0  0  0  0  0  0  0  0  0  0
    4.7618   -3.4258   44.8084 C   0  0  0  0  0  0  0  0  0  0  0  0
    5.8705   -4.0461   45.3830 C   0  0  0  0  0  0  0  0  0  0  0  0
    6.8055   -3.3324   46.1483 C   0  0  0  0  0  0  0  0  0  0  0  0
 28 29  1  0  0  0
 29 30  1  0  0  0
 29 34  2  0  0  0
 30 31  2  0  0  0
 31 32  1  0  0  0
 32 33  2  0  0  0
 33 34  1  0  0  0
 34 27  1  0  0  0
 27 26  1  0  0  0
 26 22  1  0  0  0
 22 23  2  0  0  0
 22 24  1  0  0  0
 24  1  1  0  0  0
 24 25  1  0  0  0
  1  2  2  0  0  0
  1  5  1  0  0  0
  2  3  1  0  0  0
  3  4  2  0  0  0
  4  6  1  0  0  0
  4  5  1  0  0  0
  6  7  1  0  0  0
  6 11  1  0  0  0
  7  8  1  0  0  0
  8  9  1  0  0  0
  9 12  1  0  0  0
  9 10  1  0  0  0
 12 13  1  0  0  0
 13 14  2  0  0  0
 13 21  1  0  0  0
 14 15  1  0  0  0
 15 16  2  0  0  0
 16 17  1  0  0  0
 16 21  1  0  0  0
 17 18  2  0  0  0
 18 19  1  0  0  0
 19 20  2  0  0  0
 20 21  1  0  0  0
 10 11  1  0  0  0
M  END
> <minimizedAffinity>
-9.52003

> <CNNaffinity>
-1.0000000000

$$$$



 34 38  0  0  0  0  0  0  0  0999 V2000
    4.2272   -8.2168   46.2270 C   0  0  0  0  0  0  0  0  0  0  0  0
    3.5621   -8.5051   47.3128 N   0  0  0  0  0  0  0  0  0  0  0  0
    2.2015   -8.4638   47.0992 N   0  0  0  0  0  0  0  0  0  0  0  0
    1.8757   -8.2022   45.8458 C   0  0  0  0  0  0  0  0  0  0  0  0
    3.2734   -7.7593   44.9047 S   0  0  0  0  0  0  0  0  0  0  0  0
    0.6129   -8.3036   45.3334 N   0  0  0  0  0  0  0  0  0  0  0  0
    0.2879   -9.2073   44.2406 C   0  0  0  0  0  0  0  0  0  0  0  0
   -1.0608   -9.8716   44.5182 C   0  0  0  0  0  0  0  0  0  0  0  0
   -2.1737   -8.8357   44.7402 C   0  0  0  0  0  0  0  0  0  0  0  0
   -1.7461   -7.9049   45.8912 C   0  0  0  0  0  0  0  0  0  0  0  0
   -0.3720   -7.2677   45.6646 C   0  0  0  0  0  0  0  0  0  0  0  0
   -2.4799   -8.1085   43.4174 C   0  0  0  0  0  0  0  0  0  0  0  0
   -3.9197   -7.8041   43.2308 C   0  0  0  0  0  0  0  0  0  0  0  0
   -4.9105   -8.6790   43.2781 N   0  0  0  0  0  0  0  0  0  0  0  0
   -6.1009   -8.0004   43.1168 N   0  0  0  0  0  0  0  0  0  0  0  0
   -5.7924   -6.7354   42.9798 C   0  0  0  0  0  0  0  0  0  0  0  0
   -6.6396   -5.5982   42.8025 C   0  0  0  0  0  0  0  0  0  0  0  0
   -6.1433   -4.3936   42.6794 N   0  0  0  0  0  0  0  0  0  0  0  0
   -4.7625   -4.2561   42.7298 C   0  0  0  0  0  0  0  0  0  0  0  0
   -3.9080   -5.2831   42.8978 C   0  0  0  0  0  0  0  0  0  0  0  0
   -4.4402   -6.5508   43.0310 N   0  0  0  0  0  0  0  0  0  0  0  0
    6.4805   -7.3212   46.2728 C   0  0  0  0  0  0  0  0  0  0  0  0
    7.6670   -7.5420   46.0080 O   0  0  0  0  0  0  0  0  0  0  0  0
    5.5636   -8.2843   45.9645 N   0  0  0  0  0  0  0  0  0  0  0  0
    5.9369   -9.1544   45.6153 H   0  0  0  0  0  0  0  0  0  0  0  0
    6.0571   -6.0559   47.0108 C   0  0  0  0  0  0  0  0  0  0  0  0
    6.8832   -4.9899   46.6026 O   0  0  0  0  0  0  0  0  0  0  0  0
    7.5686   -2.1599   47.8720 C   0  0  0  0  0  0  0  0  0  0  0  0
    6.6121   -2.4937   46.7621 C   0  0  0  0  0  0  0  0  0  0  0  0
    5.8920   -1.4056   46.2220 C   0  0  0  0  0  0  0  0  0  0  0  0
    4.9389   -1.5782   45.2188 C   0  0  0  0  0  0  0  0  0  0  0  0
    4.6794   -2.8489   44.7332 C   0  0  0  0  0  0  0  0  0  0  0  0
    5.3835   -3.9349   45.2522 C   0  0  0  0  0  0  0  0  0  0  0  0
    6.3508   -3.7794   46.2570 C   0  0  0  0  0  0  0  0  0  0  0  0
 28 29  1  0  0  0
 29 30  1  0  0  0
 29 34  2  0  0  0
 30 31  2  0  0  0
 31 32  1  0  0  0
 32 33  2  0  0  0
 33 34  1  0  0  0
 34 27  1  0  0  0
 27 26  1  0  0  0
 26 22  1  0  0  0
 22 23  2  0  0  0
 22 24  1  0  0  0
 24  1  1  0  0  0
 24 25  1  0  0  0
  1  2  2  0  0  0
  1  5  1  0  0  0
  2  3  1  0  0  0
  3  4  2  0  0  0
  4  6  1  0  0  0
  4  5  1  0  0  0
  6  7  1  0  0  0
  6 11  1  0  0  0
  7  8  1  0  0  0
  8  9  1  0  0  0
  9 12  1  0  0  0
  9 10  1  0  0  0
 12 13  1  0  0  0
 13 14  2  0  0  0
 13 21  1  0  0  0
 14 15  1  0  0  0
 15 16  2  0  0  0
 16 17  1  0  0  0
 16 21  1  0  0  0
 17 18  2  0  0  0
 18 19  1  0  0  0
 19 20  2  0  0  0
 20 21  1  0  0  0
 10 11  1  0  0  0
M  END
> <minimizedAffinity>
-8.93227

> <CNNaffinity>
-1.0000000000

$$$$



 34 38  0  0  0  0  0  0  0  0999 V2000
    2.6658   -9.4627   46.0420 C   0  0  0  0  0  0  0  0  0  0  0  0
    2.6537   -9.6438   44.7492 N   0  0  0  0  0  0  0  0  0  0  0  0
    1.4028   -9.4171   44.2178 N   0  0  0  0  0  0  0  0  0  0  0  0
    0.5182   -9.0155   45.1132 C   0  0  0  0  0  0  0  0  0  0  0  0
    1.1562   -9.1249   46.7308 S   0  0  0  0  0  0  0  0  0  0  0  0
   -0.7260   -8.5348   44.8157 N   0  0  0  0  0  0  0  0  0  0  0  0
   -1.2973   -7.3830   45.4965 C   0  0  0  0  0  0  0  0  0  0  0  0
   -2.0224   -6.5025   44.4785 C   0  0  0  0  0  0  0  0  0  0  0  0
   -3.0939   -7.2862   43.7049 C   0  0  0  0  0  0  0  0  0  0  0  0
   -2.4182   -8.4983   43.0353 C   0  0  0  0  0  0  0  0  0  0  0  0
   -1.6378   -9.3687   44.0246 C   0  0  0  0  0  0  0  0  0  0  0  0
   -4.2562   -7.6494   44.6480 C   0  0  0  0  0  0  0  0  0  0  0  0
   -5.5515   -7.0474   44.2475 C   0  0  0  0  0  0  0  0  0  0  0  0
   -5.7716   -6.3352   43.1550 N   0  0  0  0  0  0  0  0  0  0  0  0
   -7.1106   -6.0057   43.1104 N   0  0  0  0  0  0  0  0  0  0  0  0
   -7.6589   -6.5318   44.1766 C   0  0  0  0  0  0  0  0  0  0  0  0
   -9.0196   -6.5128   44.6132 C   0  0  0  0  0  0  0  0  0  0  0  0
   -9.3852   -7.1005   45.7238 N   0  0  0  0  0  0  0  0  0  0  0  0
   -8.4051   -7.7473   46.4648 C   0  0  0  0  0  0  0  0  0  0  0  0
   -7.1076   -7.8066   46.1099 C   0  0  0  0  0  0  0  0  0  0  0  0
   -6.7307   -7.1872   44.9342 N   0  0  0  0  0  0  0  0  0  0  0  0
    4.5744   -8.3989   47.0943 C   0  0  0  0  0  0  0  0  0  0  0  0
    5.4479   -8.5078   47.9612 O   0  0  0  0  0  0  0  0  0  0  0  0
    3.7074   -9.4390   46.9218 N   0  0  0  0  0  0  0  0  0  0  0  0
    3.7906  -10.1979   47.5817 H   0  0  0  0  0  0  0  0  0  0  0  0
    4.4010   -7.1063   46.3043 C   0  0  0  0  0  0  0  0  0  0  0  0
    5.6701   -6.6350   45.9135 O   0  0  0  0  0  0  0  0  0  0  0  0
    4.8587   -3.8732   44.5705 C   0  0  0  0  0  0  0  0  0  0  0  0
    5.7751   -4.1277   45.7339 C   0  0  0  0  0  0  0  0  0  0  0  0
    6.3876   -2.9863   46.2963 C   0  0  0  0  0  0  0  0  0  0  0  0
    7.2952   -3.0814   47.3508 C   0  0  0  0  0  0  0  0  0  0  0  0
    7.6159   -4.3258   47.8670 C   0  0  0  0  0  0  0  0  0  0  0  0
    7.0180   -5.4637   47.3266 C   0  0  0  0  0  0  0  0  0  0  0  0
    6.0977   -5.3868   46.2700 C   0  0  0  0  0  0  0  0  0  0  0  0
 28 29  1  0  0  0
 29 30  1  0  0  0
 29 34  2  0  0  0
 30 31  2  0  0  0
 31 32  1  0  0  0
 32 33  2  0  0  0
 33 34  1  0  0  0
 34 27  1  0  0  0
 27 26  1  0  0  0
 26 22  1  0  0  0
 22 23  2  0  0  0
 22 24  1  0  0  0
 24  1  1  0  0  0
 24 25  1  0  0  0
  1  2  2  0  0  0
  1  5  1  0  0  0
  2  3  1  0  0  0
  3  4  2  0  0  0
  4  6  1  0  0  0
  4  5  1  0  0  0
  6  7  1  0  0  0
  6 11  1  0  0  0
  7  8  1  0  0  0
  8  9  1  0  0  0
  9 12  1  0  0  0
  9 10  1  0  0  0
 12 13  1  0  0  0
 13 14  2  0  0  0
 13 21  1  0  0  0
 14 15  1  0  0  0
 15 16  2  0  0  0
 16 17  1  0  0  0
 16 21  1  0  0  0
 17 18  2  0  0  0
 18 19  1  0  0  0
 19 20  2  0  0  0
 20 21  1  0  0  0
 10 11  1  0  0  0
M  END
> <minimizedAffinity>
-8.83613

> <CNNaffinity>
-1.0000000000

$$$$



 34 38  0  0  0  0  0  0  0  0999 V2000
    6.0483   -7.7633   47.1104 C   0  0  0  0  0  0  0  0  0  0  0  0
    5.3645   -8.1292   48.1607 N   0  0  0  0  0  0  0  0  0  0  0  0
    4.0299   -8.2982   47.8625 N   0  0  0  0  0  0  0  0  0  0  0  0
    3.7510   -8.1117   46.5846 C   0  0  0  0  0  0  0  0  0  0  0  0
    5.1249   -7.4796   45.7195 S   0  0  0  0  0  0  0  0  0  0  0  0
    2.5539   -8.4123   45.9982 N   0  0  0  0  0  0  0  0  0  0  0  0
    2.3957   -8.4996   44.5546 C   0  0  0  0  0  0  0  0  0  0  0  0
    1.5014   -9.6923   44.2153 C   0  0  0  0  0  0  0  0  0  0  0  0
    0.1413   -9.6074   44.9251 C   0  0  0  0  0  0  0  0  0  0  0  0
    0.3926   -9.4931   46.4410 C   0  0  0  0  0  0  0  0  0  0  0  0
    1.3307   -8.3386   46.8052 C   0  0  0  0  0  0  0  0  0  0  0  0
   -0.6854   -8.4517   44.3307 C   0  0  0  0  0  0  0  0  0  0  0  0
   -2.0218   -8.2992   44.9564 C   0  0  0  0  0  0  0  0  0  0  0  0
   -2.3621   -8.7046   46.1685 N   0  0  0  0  0  0  0  0  0  0  0  0
   -3.6683   -8.3282   46.4046 N   0  0  0  0  0  0  0  0  0  0  0  0
   -4.0759   -7.7041   45.3282 C   0  0  0  0  0  0  0  0  0  0  0  0
   -5.3363   -7.0936   45.0432 C   0  0  0  0  0  0  0  0  0  0  0  0
   -5.5644   -6.5102   43.8943 N   0  0  0  0  0  0  0  0  0  0  0  0
   -4.5376   -6.5014   42.9596 C   0  0  0  0  0  0  0  0  0  0  0  0
   -3.3268   -7.0537   43.1643 C   0  0  0  0  0  0  0  0  0  0  0  0
   -3.0928   -7.6639   44.3812 N   0  0  0  0  0  0  0  0  0  0  0  0
    8.1065   -6.4808   47.1024 C   0  0  0  0  0  0  0  0  0  0  0  0
    9.3310   -6.5260   46.9436 O   0  0  0  0  0  0  0  0  0  0  0  0
    7.3939   -7.6326   46.9329 N   0  0  0  0  0  0  0  0  0  0  0  0
    7.9362   -8.4681   46.7710 H   0  0  0  0  0  0  0  0  0  0  0  0
    7.4162   -5.2041   47.5697 C   0  0  0  0  0  0  0  0  0  0  0  0
    7.7757   -4.1480   46.7089 O   0  0  0  0  0  0  0  0  0  0  0  0
    7.5665   -1.0144   47.1848 C   0  0  0  0  0  0  0  0  0  0  0  0
    6.6827   -1.9087   46.3618 C   0  0  0  0  0  0  0  0  0  0  0  0
    5.5866   -1.2798   45.7317 C   0  0  0  0  0  0  0  0  0  0  0  0
    4.6607   -1.9974   44.9750 C   0  0  0  0  0  0  0  0  0  0  0  0
    4.8077   -3.3672   44.8338 C   0  0  0  0  0  0  0  0  0  0  0  0
    5.8862   -4.0046   45.4460 C   0  0  0  0  0  0  0  0  0  0  0  0
    6.8313   -3.2979   46.2054 C   0  0  0  0  0  0  0  0  0  0  0  0
 28 29  1  0  0  0
 29 30  1  0  0  0
 29 34  2  0  0  0
 30 31  2  0  0  0
 31 32  1  0  0  0
 32 33  2  0  0  0
 33 34  1  0  0  0
 34 27  1  0  0  0
 27 26  1  0  0  0
 26 22  1  0  0  0
 22 23  2  0  0  0
 22 24  1  0  0  0
 24  1  1  0  0  0
 24 25  1  0  0  0
  1  2  2  0  0  0
  1  5  1  0  0  0
  2  3  1  0  0  0
  3  4  2  0  0  0
  4  6  1  0  0  0
  4  5  1  0  0  0
  6  7  1  0  0  0
  6 11  1  0  0  0
  7  8  1  0  0  0
  8  9  1  0  0  0
  9 12  1  0  0  0
  9 10  1  0  0  0
 12 13  1  0  0  0
 13 14  2  0  0  0
 13 21  1  0  0  0
 14 15  1  0  0  0
 15 16  2  0  0  0
 16 17  1  0  0  0
 16 21  1  0  0  0
 17 18  2  0  0  0
 18 19  1  0  0  0
 19 20  2  0  0  0
 20 21  1  0  0  0
 10 11  1  0  0  0
M  END
> <minimizedAffinity>
-8.73161

> <CNNaffinity>
-1.0000000000

$$$$



 34 38  0  0  0  0  0  0  0  0999 V2000
    4.0305   -8.4164   46.2145 C   0  0  0  0  0  0  0  0  0  0  0  0
    3.3398   -8.8983   47.2120 N   0  0  0  0  0  0  0  0  0  0  0  0
    1.9844   -8.7987   46.9844 N   0  0  0  0  0  0  0  0  0  0  0  0
    1.6879   -8.2977   45.7984 C   0  0  0  0  0  0  0  0  0  0  0  0
    3.1094   -7.7015   44.9864 S   0  0  0  0  0  0  0  0  0  0  0  0
    0.4354   -8.2822   45.2519 N   0  0  0  0  0  0  0  0  0  0  0  0
    0.0579   -9.1524   44.1489 C   0  0  0  0  0  0  0  0  0  0  0  0
   -1.3534   -9.6893   44.3888 C   0  0  0  0  0  0  0  0  0  0  0  0
   -2.3714   -8.5549   44.5830 C   0  0  0  0  0  0  0  0  0  0  0  0
   -1.8909   -7.6672   45.7471 C   0  0  0  0  0  0  0  0  0  0  0  0
   -0.4582   -7.1597   45.5588 C   0  0  0  0  0  0  0  0  0  0  0  0
   -2.5735   -7.8030   43.2540 C   0  0  0  0  0  0  0  0  0  0  0  0
   -3.6288   -6.7625   43.3191 C   0  0  0  0  0  0  0  0  0  0  0  0
   -3.4976   -5.4996   42.9485 N   0  0  0  0  0  0  0  0  0  0  0  0
   -4.7148   -4.8693   43.1059 N   0  0  0  0  0  0  0  0  0  0  0  0
   -5.5449   -5.7722   43.5642 C   0  0  0  0  0  0  0  0  0  0  0  0
   -6.9333   -5.6637   43.8847 C   0  0  0  0  0  0  0  0  0  0  0  0
   -7.6077   -6.6886   44.3399 N   0  0  0  0  0  0  0  0  0  0  0  0
   -6.9285   -7.8892   44.4989 C   0  0  0  0  0  0  0  0  0  0  0  0
   -5.6239   -8.0611   44.2132 C   0  0  0  0  0  0  0  0  0  0  0  0
   -4.9203   -6.9754   43.7294 N   0  0  0  0  0  0  0  0  0  0  0  0
    6.2637   -7.4758   46.3125 C   0  0  0  0  0  0  0  0  0  0  0  0
    7.4581   -7.6660   46.0596 O   0  0  0  0  0  0  0  0  0  0  0  0
    5.3715   -8.4503   45.9695 N   0  0  0  0  0  0  0  0  0  0  0  0
    5.7677   -9.3042   45.6059 H   0  0  0  0  0  0  0  0  0  0  0  0
    5.8038   -6.2369   47.0730 C   0  0  0  0  0  0  0  0  0  0  0  0
    5.6404   -5.1748   46.1615 O   0  0  0  0  0  0  0  0  0  0  0  0
    5.7036   -2.7456   44.1157 C   0  0  0  0  0  0  0  0  0  0  0  0
    6.5203   -2.9585   45.3591 C   0  0  0  0  0  0  0  0  0  0  0  0
    7.4715   -1.9562   45.6499 C   0  0  0  0  0  0  0  0  0  0  0  0
    8.3272   -2.0487   46.7472 C   0  0  0  0  0  0  0  0  0  0  0  0
    8.2541   -3.1525   47.5803 C   0  0  0  0  0  0  0  0  0  0  0  0
    7.3183   -4.1504   47.3107 C   0  0  0  0  0  0  0  0  0  0  0  0
    6.4448   -4.0712   46.2152 C   0  0  0  0  0  0  0  0  0  0  0  0
 28 29  1  0  0  0
 29 30  1  0  0  0
 29 34  2  0  0  0
 30 31  2  0  0  0
 31 32  1  0  0  0
 32 33  2  0  0  0
 33 34  1  0  0  0
 34 27  1  0  0  0
 27 26  1  0  0  0
 26 22  1  0  0  0
 22 23  2  0  0  0
 22 24  1  0  0  0
 24  1  1  0  0  0
 24 25  1  0  0  0
  1  2  2  0  0  0
  1  5  1  0  0  0
  2  3  1  0  0  0
  3  4  2  0  0  0
  4  6  1  0  0  0
  4  5  1  0  0  0
  6  7  1  0  0  0
  6 11  1  0  0  0
  7  8  1  0  0  0
  8  9  1  0  0  0
  9 12  1  0  0  0
  9 10  1  0  0  0
 12 13  1  0  0  0
 13 14  2  0  0  0
 13 21  1  0  0  0
 14 15  1  0  0  0
 15 16  2  0  0  0
 16 17  1  0  0  0
 16 21  1  0  0  0
 17 18  2  0  0  0
 18 19  1  0  0  0
 19 20  2  0  0  0
 20 21  1  0  0  0
 10 11  1  0  0  0
M  END
> <minimizedAffinity>
-8.42563

> <CNNaffinity>
-1.0000000000

$$$$



 34 38  0  0  0  0  0  0  0  0999 V2000
    4.7870   -8.4219   46.8982 C   0  0  0  0  0  0  0  0  0  0  0  0
    4.7347   -7.9246   48.1042 N   0  0  0  0  0  0  0  0  0  0  0  0
    5.3935   -6.7170   48.1830 N   0  0  0  0  0  0  0  0  0  0  0  0
    5.8760   -6.3069   47.0234 C   0  0  0  0  0  0  0  0  0  0  0  0
    5.7289   -7.5401   45.8015 S   0  0  0  0  0  0  0  0  0  0  0  0
    6.3891   -5.0617   46.7914 N   0  0  0  0  0  0  0  0  0  0  0  0
    5.8947   -4.2037   45.7256 C   0  0  0  0  0  0  0  0  0  0  0  0
    5.8066   -2.7648   46.2349 C   0  0  0  0  0  0  0  0  0  0  0  0
    7.1550   -2.2665   46.7773 C   0  0  0  0  0  0  0  0  0  0  0  0
    7.6218   -3.2366   47.8796 C   0  0  0  0  0  0  0  0  0  0  0  0
    7.6667   -4.6943   47.4122 C   0  0  0  0  0  0  0  0  0  0  0  0
    8.1534   -2.0984   45.6165 C   0  0  0  0  0  0  0  0  0  0  0  0
    7.8068   -0.9879   44.6960 C   0  0  0  0  0  0  0  0  0  0  0  0
    8.0357    0.2972   44.9093 N   0  0  0  0  0  0  0  0  0  0  0  0
    7.6247    1.0046   43.7983 N   0  0  0  0  0  0  0  0  0  0  0  0
    7.1626    0.1241   42.9466 C   0  0  0  0  0  0  0  0  0  0  0  0
    6.6299    0.3093   41.6335 C   0  0  0  0  0  0  0  0  0  0  0  0
    6.2088   -0.7048   40.9217 N   0  0  0  0  0  0  0  0  0  0  0  0
    6.2995   -1.9707   41.4849 C   0  0  0  0  0  0  0  0  0  0  0  0
    6.7934   -2.2159   42.7133 C   0  0  0  0  0  0  0  0  0  0  0  0
    7.2395   -1.1405   43.4564 N   0  0  0  0  0  0  0  0  0  0  0  0
    2.9414   -9.4818   45.7355 C   0  0  0  0  0  0  0  0  0  0  0  0
    2.5129  -10.5388   45.2604 O   0  0  0  0  0  0  0  0  0  0  0  0
    4.1551   -9.5036   46.3598 N   0  0  0  0  0  0  0  0  0  0  0  0
    4.6605  -10.3759   46.3130 H   0  0  0  0  0  0  0  0  0  0  0  0
    2.1896   -8.1685   45.5486 C   0  0  0  0  0  0  0  0  0  0  0  0
    0.9758   -8.2305   46.2616 O   0  0  0  0  0  0  0  0  0  0  0  0
   -0.6853  -10.7199   45.1970 C   0  0  0  0  0  0  0  0  0  0  0  0
   -1.0195   -9.2567   45.1234 C   0  0  0  0  0  0  0  0  0  0  0  0
   -2.2259   -8.9332   44.4646 C   0  0  0  0  0  0  0  0  0  0  0  0
   -2.6359   -7.6126   44.2846 C   0  0  0  0  0  0  0  0  0  0  0  0
   -1.8434   -6.5800   44.7576 C   0  0  0  0  0  0  0  0  0  0  0  0
   -0.6505   -6.8806   45.4138 C   0  0  0  0  0  0  0  0  0  0  0  0
   -0.2253   -8.2036   45.6100 C   0  0  0  0  0  0  0  0  0  0  0  0
 28 29  1  0  0  0
 29 30  1  0  0  0
 29 34  2  0  0  0
 30 31  2  0  0  0
 31 32  1  0  0  0
 32 33  2  0  0  0
 33 34  1  0  0  0
 34 27  1  0  0  0
 27 26  1  0  0  0
 26 22  1  0  0  0
 22 23  2  0  0  0
 22 24  1  0  0  0
 24  1  1  0  0  0
 24 25  1  0  0  0
  1  2  2  0  0  0
  1  5  1  0  0  0
  2  3  1  0  0  0
  3  4  2  0  0  0
  4  6  1  0  0  0
  4  5  1  0  0  0
  6  7  1  0  0  0
  6 11  1  0  0  0
  7  8  1  0  0  0
  8  9  1  0  0  0
  9 12  1  0  0  0
  9 10  1  0  0  0
 12 13  1  0  0  0
 13 14  2  0  0  0
 13 21  1  0  0  0
 14 15  1  0  0  0
 15 16  2  0  0  0
 16 17  1  0  0  0
 16 21  1  0  0  0
 17 18  2  0  0  0
 18 19  1  0  0  0
 19 20  2  0  0  0
 20 21  1  0  0  0
 10 11  1  0  0  0
M  END
> <minimizedAffinity>
-8.19933

> <CNNaffinity>
-1.0000000000

$$$$



 34 38  0  0  0  0  0  0  0  0999 V2000
   -1.7634   -8.1738   44.3543 C   0  0  0  0  0  0  0  0  0  0  0  0
   -1.6119   -7.0121   44.9305 N   0  0  0  0  0  0  0  0  0  0  0  0
   -0.4134   -6.9344   45.6059 N   0  0  0  0  0  0  0  0  0  0  0  0
    0.3331   -8.0166   45.4745 C   0  0  0  0  0  0  0  0  0  0  0  0
   -0.5387   -9.2975   44.6780 S   0  0  0  0  0  0  0  0  0  0  0  0
    1.6369   -8.1147   45.8720 N   0  0  0  0  0  0  0  0  0  0  0  0
    2.0411   -8.9090   47.0219 C   0  0  0  0  0  0  0  0  0  0  0  0
    3.3345   -9.6545   46.6917 C   0  0  0  0  0  0  0  0  0  0  0  0
    4.4510   -8.6953   46.2513 C   0  0  0  0  0  0  0  0  0  0  0  0
    3.9398   -7.8761   45.0506 C   0  0  0  0  0  0  0  0  0  0  0  0
    2.6153   -7.1620   45.3356 C   0  0  0  0  0  0  0  0  0  0  0  0
    4.9096   -7.8440   47.4502 C   0  0  0  0  0  0  0  0  0  0  0  0
    6.3788   -7.6464   47.5062 C   0  0  0  0  0  0  0  0  0  0  0  0
    7.2889   -8.6041   47.5681 N   0  0  0  0  0  0  0  0  0  0  0  0
    8.5391   -8.0211   47.5442 N   0  0  0  0  0  0  0  0  0  0  0  0
    8.3455   -6.7286   47.4656 C   0  0  0  0  0  0  0  0  0  0  0  0
    9.2932   -5.6615   47.3918 C   0  0  0  0  0  0  0  0  0  0  0  0
    8.9069   -4.4133   47.3199 N   0  0  0  0  0  0  0  0  0  0  0  0
    7.5418   -4.1593   47.3149 C   0  0  0  0  0  0  0  0  0  0  0  0
    6.5965   -5.1161   47.3783 C   0  0  0  0  0  0  0  0  0  0  0  0
    7.0127   -6.4312   47.4498 N   0  0  0  0  0  0  0  0  0  0  0  0
   -4.0055   -8.1646   43.4299 C   0  0  0  0  0  0  0  0  0  0  0  0
   -4.7456   -8.6273   42.5554 O   0  0  0  0  0  0  0  0  0  0  0  0
   -2.7164   -8.6105   43.4823 N   0  0  0  0  0  0  0  0  0  0  0  0
   -2.4331   -9.2318   42.7392 H   0  0  0  0  0  0  0  0  0  0  0  0
   -4.4809   -7.0569   44.3636 C   0  0  0  0  0  0  0  0  0  0  0  0
   -5.0313   -7.6400   45.5223 O   0  0  0  0  0  0  0  0  0  0  0  0
   -6.4751   -8.6248   48.1748 C   0  0  0  0  0  0  0  0  0  0  0  0
   -6.9708   -7.6711   47.1246 C   0  0  0  0  0  0  0  0  0  0  0  0
   -8.2716   -7.1588   47.3231 C   0  0  0  0  0  0  0  0  0  0  0  0
   -8.8733   -6.2997   46.4040 C   0  0  0  0  0  0  0  0  0  0  0  0
   -8.1868   -5.9348   45.2580 C   0  0  0  0  0  0  0  0  0  0  0  0
   -6.8998   -6.4281   45.0470 C   0  0  0  0  0  0  0  0  0  0  0  0
   -6.2759   -7.2881   45.9640 C   0  0  0  0  0  0  0  0  0  0  0  0
 28 29  1  0  0  0
 29 30  1  0  0  0
 29 34  2  0  0  0
 30 31  2  0  0  0
 31 32  1  0  0  0
 32 33  2  0  0  0
 33 34  1  0  0  0
 34 27  1  0  0  0
 27 26  1  0  0  0
 26 22  1  0  0  0
 22 23  2  0  0  0
 22 24  1  0  0  0
 24  1  1  0  0  0
 24 25  1  0  0  0
  1  2  2  0  0  0
  1  5  1  0  0  0
  2  3  1  0  0  0
  3  4  2  0  0  0
  4  6  1  0  0  0
  4  5  1  0  0  0
  6  7  1  0  0  0
  6 11  1  0  0  0
  7  8  1  0  0  0
  8  9  1  0  0  0
  9 12  1  0  0  0
  9 10  1  0  0  0
 12 13  1  0  0  0
 13 14  2  0  0  0
 13 21  1  0  0  0
 14 15  1  0  0  0
 15 16  2  0  0  0
 16 17  1  0  0  0
 16 21  1  0  0  0
 17 18  2  0  0  0
 18 19  1  0  0  0
 19 20  2  0  0  0
 20 21  1  0  0  0
 10 11  1  0  0  0
M  END
> <minimizedAffinity>
-8.14247

> <CNNaffinity>
-1.0000000000

$$$$



 34 38  0  0  0  0  0  0  0  0999 V2000
   -2.6114   -8.1220   44.1253 C   0  0  0  0  0  0  0  0  0  0  0  0
   -2.3012   -7.0494   44.8018 N   0  0  0  0  0  0  0  0  0  0  0  0
   -1.0385   -7.1413   45.3458 N   0  0  0  0  0  0  0  0  0  0  0  0
   -0.4070   -8.2547   45.0187 C   0  0  0  0  0  0  0  0  0  0  0  0
   -1.4637   -9.3654   44.1908 S   0  0  0  0  0  0  0  0  0  0  0  0
    0.9165   -8.4968   45.2577 N   0  0  0  0  0  0  0  0  0  0  0  0
    1.7320   -7.6149   46.0785 C   0  0  0  0  0  0  0  0  0  0  0  0
    2.6477   -8.4559   46.9683 C   0  0  0  0  0  0  0  0  0  0  0  0
    3.5164   -9.4201   46.1458 C   0  0  0  0  0  0  0  0  0  0  0  0
    2.5854  -10.2993   45.2889 C   0  0  0  0  0  0  0  0  0  0  0  0
    1.6184   -9.4820   44.4273 C   0  0  0  0  0  0  0  0  0  0  0  0
    4.5569   -8.6229   45.3370 C   0  0  0  0  0  0  0  0  0  0  0  0
    5.3981   -7.7321   46.1733 C   0  0  0  0  0  0  0  0  0  0  0  0
    6.1883   -8.1145   47.1626 N   0  0  0  0  0  0  0  0  0  0  0  0
    6.8451   -7.0040   47.6516 N   0  0  0  0  0  0  0  0  0  0  0  0
    6.4332   -5.9849   46.9402 C   0  0  0  0  0  0  0  0  0  0  0  0
    6.8042   -4.6067   47.0109 C   0  0  0  0  0  0  0  0  0  0  0  0
    6.2768   -3.7189   46.2070 N   0  0  0  0  0  0  0  0  0  0  0  0
    5.3442   -4.1620   45.2787 C   0  0  0  0  0  0  0  0  0  0  0  0
    4.9528   -5.4445   45.1562 C   0  0  0  0  0  0  0  0  0  0  0  0
    5.5173   -6.3759   46.0057 N   0  0  0  0  0  0  0  0  0  0  0  0
   -4.9316   -7.8535   43.4726 C   0  0  0  0  0  0  0  0  0  0  0  0
   -5.7934   -8.1518   42.6390 O   0  0  0  0  0  0  0  0  0  0  0  0
   -3.6819   -8.3817   43.3217 N   0  0  0  0  0  0  0  0  0  0  0  0
   -3.5273   -8.9175   42.4807 H   0  0  0  0  0  0  0  0  0  0  0  0
   -5.2195   -6.8492   44.5832 C   0  0  0  0  0  0  0  0  0  0  0  0
   -6.5155   -7.0811   45.0853 O   0  0  0  0  0  0  0  0  0  0  0  0
   -7.7781   -4.3981   46.2242 C   0  0  0  0  0  0  0  0  0  0  0  0
   -7.3939   -5.6510   46.9596 C   0  0  0  0  0  0  0  0  0  0  0  0
   -7.5924   -5.6296   48.3575 C   0  0  0  0  0  0  0  0  0  0  0  0
   -7.2375   -6.7070   49.1686 C   0  0  0  0  0  0  0  0  0  0  0  0
   -6.6694   -7.8341   48.5987 C   0  0  0  0  0  0  0  0  0  0  0  0
   -6.4691   -7.8744   47.2194 C   0  0  0  0  0  0  0  0  0  0  0  0
   -6.8262   -6.8026   46.3868 C   0  0  0  0  0  0  0  0  0  0  0  0
 28 29  1  0  0  0
 29 30  1  0  0  0
 29 34  2  0  0  0
 30 31  2  0  0  0
 31 32  1  0  0  0
 32 33  2  0  0  0
 33 34  1  0  0  0
 34 27  1  0  0  0
 27 26  1  0  0  0
 26 22  1  0  0  0
 22 23  2  0  0  0
 22 24  1  0  0  0
 24  1  1  0  0  0
 24 25  1  0  0  0
  1  2  2  0  0  0
  1  5  1  0  0  0
  2  3  1  0  0  0
  3  4  2  0  0  0
  4  6  1  0  0  0
  4  5  1  0  0  0
  6  7  1  0  0  0
  6 11  1  0  0  0
  7  8  1  0  0  0
  8  9  1  0  0  0
  9 12  1  0  0  0
  9 10  1  0  0  0
 12 13  1  0  0  0
 13 14  2  0  0  0
 13 21  1  0  0  0
 14 15  1  0  0  0
 15 16  2  0  0  0
 16 17  1  0  0  0
 16 21  1  0  0  0
 17 18  2  0  0  0
 18 19  1  0  0  0
 19 20  2  0  0  0
 20 21  1  0  0  0
 10 11  1  0  0  0
M  END
> <minimizedAffinity>
-8.09947

> <CNNaffinity>
-1.0000000000

$$$$



 34 38  0  0  0  0  0  0  0  0999 V2000
   -1.8540   -8.0886   44.2678 C   0  0  0  0  0  0  0  0  0  0  0  0
   -1.6920   -6.9405   44.8680 N   0  0  0  0  0  0  0  0  0  0  0  0
   -0.5005   -6.8936   45.5583 N   0  0  0  0  0  0  0  0  0  0  0  0
    0.2314   -7.9842   45.4146 C   0  0  0  0  0  0  0  0  0  0  0  0
   -0.6498   -9.2365   44.5837 S   0  0  0  0  0  0  0  0  0  0  0  0
    1.5289   -8.1094   45.8249 N   0  0  0  0  0  0  0  0  0  0  0  0
    1.9125   -8.9601   46.9409 C   0  0  0  0  0  0  0  0  0  0  0  0
    3.2061   -9.6972   46.5934 C   0  0  0  0  0  0  0  0  0  0  0  0
    4.3341   -8.7251   46.2147 C   0  0  0  0  0  0  0  0  0  0  0  0
    3.8445   -7.8463   45.0476 C   0  0  0  0  0  0  0  0  0  0  0  0
    2.5202   -7.1383   45.3482 C   0  0  0  0  0  0  0  0  0  0  0  0
    4.7806   -7.9349   47.4592 C   0  0  0  0  0  0  0  0  0  0  0  0
    6.2491   -7.7405   47.5394 C   0  0  0  0  0  0  0  0  0  0  0  0
    7.1512   -8.6957   47.6918 N   0  0  0  0  0  0  0  0  0  0  0  0
    8.4053   -8.1214   47.6597 N   0  0  0  0  0  0  0  0  0  0  0  0
    8.2219   -6.8367   47.4860 C   0  0  0  0  0  0  0  0  0  0  0  0
    9.1780   -5.7816   47.3625 C   0  0  0  0  0  0  0  0  0  0  0  0
    8.8015   -4.5398   47.1936 N   0  0  0  0  0  0  0  0  0  0  0  0
    7.4386   -4.2806   47.1353 C   0  0  0  0  0  0  0  0  0  0  0  0
    6.4860   -5.2264   47.2408 C   0  0  0  0  0  0  0  0  0  0  0  0
    6.8919   -6.5351   47.4148 N   0  0  0  0  0  0  0  0  0  0  0  0
   -4.1167   -8.1236   43.3958 C   0  0  0  0  0  0  0  0  0  0  0  0
   -4.8519   -8.5421   42.4953 O   0  0  0  0  0  0  0  0  0  0  0  0
   -2.8031   -8.4943   43.3768 N   0  0  0  0  0  0  0  0  0  0  0  0
   -2.5043   -9.0219   42.5700 H   0  0  0  0  0  0  0  0  0  0  0  0
   -4.6301   -7.1431   44.4445 C   0  0  0  0  0  0  0  0  0  0  0  0
   -5.9101   -6.6940   44.0633 O   0  0  0  0  0  0  0  0  0  0  0  0
   -8.5101   -4.8721   44.1684 C   0  0  0  0  0  0  0  0  0  0  0  0
   -7.1917   -4.6037   43.4992 C   0  0  0  0  0  0  0  0  0  0  0  0
   -7.0974   -3.3853   42.7915 C   0  0  0  0  0  0  0  0  0  0  0  0
   -5.9479   -3.0299   42.0866 C   0  0  0  0  0  0  0  0  0  0  0  0
   -4.8628   -3.8902   42.0692 C   0  0  0  0  0  0  0  0  0  0  0  0
   -4.9366   -5.0961   42.7654 C   0  0  0  0  0  0  0  0  0  0  0  0
   -6.0824   -5.4674   43.4856 C   0  0  0  0  0  0  0  0  0  0  0  0
 28 29  1  0  0  0
 29 30  1  0  0  0
 29 34  2  0  0  0
 30 31  2  0  0  0
 31 32  1  0  0  0
 32 33  2  0  0  0
 33 34  1  0  0  0
 34 27  1  0  0  0
 27 26  1  0  0  0
 26 22  1  0  0  0
 22 23  2  0  0  0
 22 24  1  0  0  0
 24  1  1  0  0  0
 24 25  1  0  0  0
  1  2  2  0  0  0
  1  5  1  0  0  0
  2  3  1  0  0  0
  3  4  2  0  0  0
  4  6  1  0  0  0
  4  5  1  0  0  0
  6  7  1  0  0  0
  6 11  1  0  0  0
  7  8  1  0  0  0
  8  9  1  0  0  0
  9 12  1  0  0  0
  9 10  1  0  0  0
 12 13  1  0  0  0
 13 14  2  0  0  0
 13 21  1  0  0  0
 14 15  1  0  0  0
 15 16  2  0  0  0
 16 17  1  0  0  0
 16 21  1  0  0  0
 17 18  2  0  0  0
 18 19  1  0  0  0
 19 20  2  0  0  0
 20 21  1  0  0  0
 10 11  1  0  0  0
M  END
> <minimizedAffinity>
-8.01242

> <CNNaffinity>
-1.0000000000

$$$$
